tests/data/P1U/p1uhs3_1247/Master.dss
Clear

New Circuit.substation_p1uhs3_69 bus1=p1uhs3_69 pu=1.0 basekV=69.0 R1=1e-05 X1=1e-05 R0=1e-05 X0=1e-05

Redirect LineCodes.dss
Redirect p1uhs3_1247--p1udt1696/LineCodes.dss
Redirect p1uhs3_1247--p1udt1824/LineCodes.dss
Redirect Lines.dss
Redirect p1uhs3_1247--p1udt1696/Lines.dss
Redirect p1uhs3_1247--p1udt1824/Lines.dss
Redirect Transformers.dss
Redirect p1uhs3_1247--p1udt1696/Transformers.dss
Redirect p1uhs3_1247--p1udt1824/Transformers.dss
Redirect Regulators.dss
Redirect p1uhs3_1247--p1udt1696/Loads.dss
Redirect p1uhs3_1247--p1udt1824/Loads.dss
Redirect p1uhs3_1247--p1udt1696/Capacitors.dss
new monitor.m1 element=Line.sb8_p1uhs3_1247_403 mode=0
new monitor.m2 element=Line.sb8_p1uhs3_1247_403 mode=1
new energymeter.m3 Line.sb8_p1uhs3_1247_403

Set Voltagebases=[0.12, 0.208, 0.48, 7.2, 12.47, 69.0]

Calcvoltagebases

Buscoords Buscoords.dss
set maxcontroliter=50
